/*--------------------------------*- C++ -*----------------------------------*\
| =========                 |                                                 |
| \\      /  F ield         | OpenFOAM: The Open Source CFD Toolbox           |
|  \\    /   O peration     | Version:  5.x                                   |
|   \\  /    A nd           | Web:      www.OpenFOAM.org                      |
|    \\/     M anipulation  |                                                 |
\*---------------------------------------------------------------------------*/
FoamFile
{
    version     2.0;
    format      binary;
    class       volScalarField;
    location    "0";
    object      p;
}
// * * * * * * * * * * * * * * * * * * * * * * * * * * * * * * * * * * * * * //

dimensions      [0 2 -2 0 0 0 0];

internalField   uniform 0;

boundaryField
{
    "(SW.*|NW.*|NE.*|SE.*)"
    {
        type            zeroGradient;
    }
	outer
    {
        type            zeroGradient;
    }
    south
    {
        type            totalPressure;
        p0				uniform 0;
	}
    west
    {
        type            fixedFluxPressure;
		value			0;
    }
    east
    {
        type            totalPressure;
        p0				uniform 0;
    }
    north
    {
        type            totalPressure;
        p0				uniform 0;
    }
    atmosphere
    {
        type            symmetry;
    }
    
    #includeEtc "caseDicts/setConstraintTypes"
}


// ************************************************************************* //
