/*--------------------------------*- C++ -*----------------------------------*\
| =========                 |                                                 |
| \\      /  F ield         | OpenFOAM: The Open Source CFD Toolbox           |
|  \\    /   O peration     | Version:  4.1                                   |
|   \\  /    A nd           | Web:      www.OpenFOAM.org                      |
|    \\/     M anipulation  |                                                 |
\*---------------------------------------------------------------------------*/
FoamFile
{
    version     2.0;
    format      ascii;
    class       dictionary;
    location    "system";
    object      fvSolution;
}
// * * * * * * * * * * * * * * * * * * * * * * * * * * * * * * * * * * * * * //

solvers
{
    p
	{
		solver 		GAMG;
		smoother 	GaussSeidel;
		tolerance 	1e-06;
		relTol		0.01;
	}

	p_rgh
    {
        solver          GAMG;
        smoother 	GaussSeidel;
        tolerance       1e-06;
        relTol          0.01;
    }

    "(U|T|k|epsilon)"
    {
        solver          PBiCG;
        preconditioner  DILU;
        tolerance       1e-06;
        relTol          0.1;
    }
}

SIMPLE
{
    nNonOrthogonalCorrectors 4;
    pRefCell        0;
    pRefValue       0;

    residualControl
    {
        p_rgh           1e-6;
	p		1e-6;
        U               1e-6;
        T               1e-6;
        "(k|epsilon|omega)" 1e-6;
    }
}

relaxationFactors
{
    fields
    {
        p_rgh           0.7;
	p		0.7;
    }
    equations
    {
        U               0.5;
        T               0.2;
        "(k|epsilon)"   0.7;
    }
}


// ************************************************************************* //
