/*--------------------------------*- C++ -*----------------------------------*\
| =========                 |                                                 |
| \\      /  F ield         | OpenFOAM: The Open Source CFD Toolbox           |
|  \\    /   O peration     | Version:  5.x                                   |
|   \\  /    A nd           | Web:      www.OpenFOAM.org                      |
|    \\/     M anipulation  |                                                 |
\*---------------------------------------------------------------------------*/
FoamFile
{
    version     2.0;
    format      binary;
    class       volScalarField;
    location    "0";
    object      nut;
}
// * * * * * * * * * * * * * * * * * * * * * * * * * * * * * * * * * * * * * //

dimensions      [0 2 -1 0 0 0 0];

internalField   uniform 0;

boundaryField
{
    "(SW.*|NW.*|NE.*|SE.*)"
    {
        type            nutkWallFunction;
        value           uniform 0;
    }
    outer
    {
        type            nutkAtmRoughWallFunction;
        z0				uniform 1.0;
		value			uniform 0;
    }
    south
    {
        type            zeroGradient;
	}
    west
    {
        type            calculated;
        value           uniform 0;
    }
    east
    {
        type            zeroGradient;
    }
    north
    {
        type            calculated;
        value           uniform 0;
    }
    atmosphere
    {
        type            symmetry;
    }
	
    #includeEtc "caseDicts/setConstraintTypes"
}


// ************************************************************************* //
